/*--------------------------------*- C++ -*----------------------------------*\
| =========                 |                                                 |
| \\      /  F ield         | OpenFOAM: The Open Source CFD Toolbox           |
|  \\    /   O peration     | Version:  dev                                   |
|   \\  /    A nd           | Web:      www.OpenFOAM.org                      |
|    \\/     M anipulation  |                                                 |
\*---------------------------------------------------------------------------*/
FoamFile
{
    version     2.0;
    format      ascii;
    class       volScalarField;
    location    "0";
    object      alphat;
}
// * * * * * * * * * * * * * * * * * * * * * * * * * * * * * * * * * * * * * //

dimensions      [1 -1 -1 0 0 0 0];

internalField   uniform 0;

boundaryField
{
    outlet
    {
        type            zeroGradient;
    }

    inletFuel
    {
        type            zeroGradient;
    }

    inletCoflow
    {
        type            zeroGradient;
    }

    entrainmentBottom
    {
        type            zeroGradient;
    }

    entrainmentWestSide
    {
        type            zeroGradient;
    }
      entrainmentNorthSide
    {
        type            zeroGradient;
    }

   entrainmentEastSide
    {
        type            zeroGradient;
    }

   entrainmentSouthSide
    {
        type            zeroGradient;
    }
   fixedWalls
    {
	type		zeroGradient;
    }

//    frontAndBack
//    {
//        type            empty;
//    }
}


// ************************************************************************* //
