/*--------------------------------*- C++ -*----------------------------------*\
| =========                 |                                                 |
| \\      /  F ield         | OpenFOAM: The Open Source CFD Toolbox           |
|  \\    /   O peration     | Version:  dev                                   |
|   \\  /    A nd           | Web:      www.OpenFOAM.org                      |
|    \\/     M anipulation  |                                                 |
\*---------------------------------------------------------------------------*/
FoamFile
{
    version     2.0;
    format      ascii;
    class       volScalarField;
    location    "0";
    object      CH4;
}
// * * * * * * * * * * * * * * * * * * * * * * * * * * * * * * * * * * * * * //

dimensions      [0 0 0 0 0 0 0];

internalField   uniform 0;

boundaryField
{
    outlet
    {
        type            inletOutlet;
        inletValue      $internalField;
        value           $internalField;
    }
    entrainmentBottom
    {
        type            inletOutlet;
        inletValue      $internalField;
        value           $internalField;
    }
    entrainmentWestSide
    {
        type            inletOutlet;
        inletValue      $internalField;
        value           $internalField;
    }
    entrainmentNorthSide
    {
        type            inletOutlet;
        inletValue      $internalField;
        value           $internalField;
    }
    entrainmentEastSide
    {
        type            inletOutlet;
        inletValue      $internalField;
        value           $internalField;
    }
    entrainmentSouthSide
    {
        type            inletOutlet;
        inletValue      $internalField;
        value           $internalField;
    }
    inletCoflow
    {
        type            fixedValue;
	value	 	uniform 0;
    }

    inletFuel
    {
        type            fixedValue;
        value           uniform 1.0;
    }

    fixedWalls
    {
	type 		zeroGradient;
    }
}


// ************************************************************************* //
