/*--------------------------------*- C++ -*----------------------------------*\
| =========                 |                                                 |
| \\      /  F ield         | OpenFOAM: The Open Source CFD Toolbox           |
|  \\    /   O peration     | Version:  dev                                   |
|   \\  /    A nd           | Web:      www.OpenFOAM.org                      |
|    \\/     M anipulation  |                                                 |
\*---------------------------------------------------------------------------*/
FoamFile
{
    version     2.0;
    format      ascii;
    class       volScalarField;
    location    "0";
    object      N2;
}
// * * * * * * * * * * * * * * * * * * * * * * * * * * * * * * * * * * * * * //

dimensions      [0 0 0 0 0 0 0];

internalField   uniform 0.76699;

boundaryField
{
    outlet
    {
        type            calculated;
        value           $internalField;
    }

    entrainmentBottom
    {
        type            calculated;
        value           $internalField;
    }

    entrainmentWestSide
    {
        type            calculated;
        value           $internalField;
    }

    entrainmentNorthSide
    {
        type            calculated;
        value           $internalField;
    }

    entrainmentEastSide
    {
        type            calculated;
        value           $internalField;
    }

    entrainmentSouthSide
    {
        type            calculated;
        value           $internalField;
    }

    inletFuel
    {
        type            fixedValue;
        value           uniform 0;
    }
    
    inletCoflow
    {
	type 		calculated;
	value           $internalField;
    }

    fixedWalls
    {
	type 		zeroGradient;
    }

}


// ************************************************************************* //
