/*--------------------------------*- C++ -*----------------------------------*\
| =========                 |                                                 |
| \\      /  F ield         | OpenFOAM: The Open Source CFD Toolbox           |
|  \\    /   O peration     | Version:  dev                                   |
|   \\  /    A nd           | Web:      www.OpenFOAM.org                      |
|    \\/     M anipulation  |                                                 |
\*---------------------------------------------------------------------------*/
FoamFile
{
    version     2.0;
    format      ascii;
    class       volScalarField;
    location    "0";
    object      ph_rgh;
}
// * * * * * * * * * * * * * * * * * * * * * * * * * * * * * * * * * * * * * //

dimensions      [1 -1 -2 0 0 0 0];

internalField   uniform 0;

boundaryField
{


    "(outlet|entrainmentBottom|entrainmentWestSide|entrainmentNorthSide|entrainmentEastSide|entrainmentSouthSide)"
    {
        type            fixedFluxPressure;
        value           $internalField;
    }

    fixedWalls
    {
        type            fixedValue;
        value           $internalField;
    }

    inletFuel
    {
        type            fixedFluxPressure;
        value           $internalField;
    }

    inletCoflow
    {
        type            fixedFluxPressure;
        value           $internalField;
    }

}


// ************************************************************************* //
